RUNSPEC
INCLUDE
'RUNSPEC.INC' /

GRID
INCLUDE                                -- Generated : Petrel
'GRID.INC' /
--INCERTEZA NA EXISTENCIA DE BLOCOS
INCLUDE
'BL0.INC'	/

INCLUDE
'IMG0.INC'/

GRIDFILE
0	1 /

--INCERTEZA NA PERMEABILIDADE VERTICAL
INCLUDE
'KZ0.INC'	/
INIT

EDIT

PROPS
-- INCERTEZA NA COMPRESSIBILIDADE DA ROCHA
INCLUDE                                -- Generated : Petrel
'CP0.INC' /
-- INCERTEZAS NAS PROPRIEDADES PVT
INCLUDE
'PV0.INC' /
-- INCERTEZAS NAS PROPRIEDADES DE PERMEABILIDADE RELATIVA
INCLUDE
'KR0.INC' /

REGIONS

INCLUDE                                -- Generated : Petrel
'REGIONS.INC' /

SOLUTION
--INCERTEZA NA CONTATO OLEO-AGUA
INCLUDE
'WO0.INC'	/
INCLUDE
'TD0.INC'	/
INCLUDE                                -- Generated : Petrel
'SOL.INC' /

SUMMARY

INCLUDE                                -- Generated : Petrel
'SUM.INC' /

SCHEDULE

INCLUDE                                -- Generated : Petrel
'WELLS.INC' /

INCLUDE
'HISTORY.INC'	/

-- INCERTEZA QUANTO AO IP DO POCO PRODUTOR
-- INCLUDE
--	'FF0.INC'	/

--INCERTEZAS QUANTO A EFICIENCIA DA OPERACAO DA PLATAFORMA
--INCLUDE
--	'OPL0.INC'	/
--INCERTEZA QUANTO A OPERACAO DE GRUPOS DE POCOS
--INCLUDE
--	'OGR0.INC'	/
--INCERTEZAS QUANTO A EFICIENCIA DOS INJETORES
--INCLUDE	-- Habilitar quando houer poþos injetores
--	'OIW0.INC'	/
--INCERTEZAS QUANTO A EFICIENCIA DOS PRODUTORES
--INCLUDE
--	'OPW0.INC'	/


